! TightSCF NMR TPSS def2-mTZVP RI

* xyzfile 0 1 IM5-neworca.xyz
  C    -2.023604   -5.422851    2.379732
  N    -1.406595   -4.600387    1.373208
  C    -0.384661   -5.043633    0.605531
  C     0.184908   -3.874264   -0.169052
  C    -0.853572   -2.775557    0.007962
  C    -0.385930   -1.347163   -0.000000
  C     0.957682   -0.991856   -0.003313
  C     1.343494    0.343021    0.000000
  C     0.388749    1.346420    0.006022
  C    -0.957563    1.004142    0.000000
  C    -1.337639   -0.326972   -0.008429
  C    -1.657776   -3.154417    1.284474
  N    -3.066048   -2.831323    1.197411
  C    -3.918883   -3.552779    0.294294
  C    -3.505554   -2.445232    2.472402
  C    -2.438980   -2.218974    3.241876
  N    -1.282261   -2.451341    2.493116
  C    -0.012321   -2.716600    3.108056
  C     0.522757   -4.219338   -1.604904
  O     0.032067   -6.187619    0.572584
  H    -1.720691   -5.112406    3.383459
  H    -1.707566   -6.451952    2.211606
  H    -3.110704   -5.361339    2.322889
  H     1.109099   -3.620509    0.363363
  H    -1.568775   -2.887058   -0.813961
  H     1.726410   -1.755382   -0.015568
  H     2.398139    0.594878   -0.005305
  H     0.689130    2.388033    0.008993
  H    -1.715489    1.779629   -0.000533
  H    -2.389196   -0.590292   -0.006720
  H    -4.033226   -4.616604    0.541107
  H    -3.537903   -3.483665   -0.726562
  H    -4.907010   -3.090764    0.306712
  H    -4.551291   -2.280145    2.673579
  H    -2.381661   -1.823806    4.243172
  H     0.088247   -2.080011    3.987595
  H     0.116226   -3.761515    3.422867
  H     0.798772   -2.461635    2.423260
  H    -0.380502   -4.485185   -2.160467
  H     0.991681   -3.370236   -2.106425
  H     1.207588   -5.067368   -1.644820
  H:    0.000000    0.000000    0.000000
*