%Pal nprocs 4 end
! TightSCF NMR TPSS def2-mTZVP RI

* xyzfile 0 1 IM2-neworca.xyz
*
  C    -1.146171   -3.228280    1.324479
  N    -0.870230   -2.672622    0.016006
  C    -1.161694   -3.392871   -1.106596
  O    -1.591572   -4.535630   -1.035360
  C    -0.972537   -2.696709   -2.447278
  C    -2.288162   -2.048721   -2.769858
  C    -2.541009   -0.743752   -3.070445
  N    -1.693025    0.311337   -3.348647
  C    -0.274276    0.223986   -3.548665
  C    -2.436504    1.453359   -3.611991
  C    -3.735133    1.137038   -3.500336
  N    -3.810543   -0.201567   -3.163734
  C    -5.005869   -0.951748   -2.935550
  C    -0.509834   -3.700645   -3.496995
  C    -0.431710   -1.320947   -0.012292
  C     0.927723   -1.032849   -0.000000
  C     1.357842    0.285839    0.001608
  C     0.430893    1.319455    0.000000
  C    -0.926769    1.030937    0.001172
  C    -1.358615   -0.286606   -0.000000
  H    -1.373857   -4.285178    1.206335
  H    -1.999419   -2.727266    1.793065
  H    -0.275016   -3.109098    1.972620
  H    -0.028442   -0.627235   -4.188789
  H     0.058607    1.134177   -4.047028
  H     0.270490    0.132834   -2.606299
  H    -1.961041    2.389405   -3.849579
  H    -4.617402    1.741478   -3.624148
  H    -5.123343   -1.750358   -3.675903
  H    -4.990352   -1.411233   -1.941528
  H    -5.862200   -0.282362   -3.003049
  H    -1.267815   -4.469944   -3.650037
  H     0.420199   -4.195161   -3.200477
  H    -0.346143   -3.185399   -4.445905
  H     1.640301   -1.850121   -0.002322
  H     2.419169    0.506430    0.002248
  H     0.767167    2.349959   -0.002434
  H    -1.654152    1.834620   -0.005272
  H    -2.415246   -0.524376   -0.011974
  H    -3.154925   -2.692852   -2.682810
  H    -0.201194   -1.938859   -2.325922
